Version 4
SHEET 1 1812 1620
WIRE -304 784 -400 784
WIRE -144 784 -224 784
WIRE 192 784 -80 784
WIRE 528 784 288 784
WIRE 608 784 528 784
WIRE 768 784 608 784
WIRE 896 784 768 784
WIRE 1008 784 960 784
WIRE 192 816 128 816
WIRE 336 816 288 816
WIRE -400 880 -400 784
WIRE 528 880 528 784
WIRE 608 880 608 784
WIRE -400 896 -400 880
WIRE -400 992 -400 976
WIRE 128 992 128 816
WIRE 336 992 336 816
WIRE 528 992 528 944
WIRE 608 992 608 960
FLAG -400 992 0
FLAG -400 880 IN
FLAG 1008 784 out
FLAG 128 992 0
FLAG 528 992 0
FLAG 608 992 0
FLAG 336 992 0
FLAG 768 784 Vrcvr
SYMBOL DIGITAL\\SCHMTBUF 896 720 R0
WINDOW 0 1 33 Left 2
WINDOW 3 12 105 Center 2
SYMATTR InstName A4
SYMATTR Value Vt=2.5 Vh=250m
SYMBOL res 592 864 R0
SYMATTR InstName R1
SYMATTR Value 1000
SYMBOL cap 512 880 R0
SYMATTR InstName C1
SYMATTR Value 1pF
SYMATTR SpiceLine Rser=10mR
SYMBOL res -208 768 R90
WINDOW 0 -1 85 VBottom 2
WINDOW 3 -29 37 VTop 2
SYMATTR InstName R2
SYMATTR Value 22
SYMBOL ltline 240 800 R0
SYMATTR InstName O1
SYMATTR Value LTLINE
SYMBOL Wurth_Elektronik\\EMC\\1_Ferrites_For_PCB_Assembly\\WE-CBF -112 784 R0
WINDOW 38 43 25 Center 2
SYMATTR SpiceModel 0402_74279274_30ohm
SYMATTR InstName U1
SYMBOL voltage -400 880 R0
WINDOW 123 0 0 Left 0
WINDOW 39 0 0 Left 0
SYMATTR InstName V1
SYMATTR Value PULSE(0 5 1.05ns 100ps 100ps 5ns 10ns)
TEXT 144 632 Left 2 !.tran 0 10µs 0m
TEXT 0 664 Left 2 !.options baudrate=200MEG delay=2.5n
TEXT -64 696 Left 2 !.model LTLINE LTRA(len=15 R=50mR L=2nH C=1.9pF)
