Version 4
SHEET 1 2020 744
WIRE 176 -32 112 -32
WIRE 304 -32 176 -32
WIRE 624 -32 304 -32
WIRE -848 -16 -976 -16
WIRE -768 -16 -848 -16
WIRE -544 -16 -688 -16
WIRE -352 -16 -544 -16
WIRE -256 -16 -272 -16
WIRE -848 16 -848 -16
WIRE 16 16 -16 16
WIRE 112 16 112 -32
WIRE 112 16 16 16
WIRE 304 32 304 -32
WIRE 320 32 304 32
WIRE 624 32 624 -32
WIRE 624 32 608 32
WIRE -544 48 -544 -16
WIRE 16 80 16 16
WIRE -544 128 -544 112
WIRE -432 128 -544 128
WIRE -416 128 -432 128
WIRE 320 128 304 128
WIRE 864 128 608 128
WIRE -976 144 -976 -16
WIRE -848 144 -848 80
WIRE -544 144 -544 128
WIRE -976 160 -976 144
WIRE -256 176 -256 -16
WIRE -240 176 -256 176
WIRE -16 176 -16 16
WIRE -16 176 -48 176
WIRE 752 176 720 176
WIRE 240 224 176 224
WIRE 320 224 304 224
WIRE 640 224 608 224
WIRE 640 240 640 224
WIRE 816 240 816 176
WIRE -848 256 -848 224
WIRE -544 256 -544 224
WIRE -544 256 -848 256
WIRE -400 256 -544 256
WIRE -240 272 -256 272
WIRE -16 272 -48 272
WIRE -544 304 -544 256
WIRE -400 304 -400 256
WIRE -848 320 -848 256
WIRE 176 320 176 224
WIRE 224 320 176 320
WIRE 320 320 304 320
WIRE 640 320 640 304
WIRE 640 320 608 320
WIRE 720 320 720 176
WIRE 720 320 640 320
WIRE 752 320 720 320
WIRE 864 320 864 128
WIRE 864 320 832 320
WIRE 1024 320 864 320
WIRE 1344 320 1024 320
WIRE 1456 320 1344 320
WIRE 1600 320 1456 320
WIRE 1920 320 1824 320
WIRE 864 336 864 320
WIRE 1344 336 1344 320
WIRE 640 368 640 320
WIRE 656 368 640 368
WIRE 768 368 720 368
WIRE 1920 368 1920 320
WIRE 1920 384 1920 368
WIRE -544 400 -544 384
WIRE -432 400 -544 400
WIRE -416 400 -432 400
WIRE -544 416 -544 400
WIRE 176 416 176 320
WIRE 320 416 176 416
WIRE 864 416 608 416
WIRE -848 432 -848 400
WIRE 864 432 864 416
WIRE 1264 432 1232 432
WIRE 1344 432 1344 416
WIRE 1344 432 1264 432
WIRE 1600 432 1600 320
WIRE 1632 432 1600 432
WIRE 1824 432 1824 320
WIRE 1456 448 1456 320
WIRE -16 528 -16 272
WIRE 16 528 16 144
WIRE 16 528 -16 528
WIRE 64 528 16 528
WIRE 176 528 176 416
WIRE 176 528 144 528
WIRE 768 528 768 368
WIRE 768 528 176 528
WIRE 864 528 864 512
WIRE 864 528 768 528
WIRE 1264 528 1232 528
WIRE 1344 528 1344 512
WIRE 1344 528 1264 528
WIRE 1632 528 1600 528
WIRE -976 544 -976 240
WIRE -848 544 -848 496
WIRE -848 544 -976 544
WIRE -768 544 -848 544
WIRE -544 544 -544 480
WIRE -544 544 -688 544
WIRE -352 544 -544 544
WIRE -256 544 -256 272
WIRE -256 544 -272 544
WIRE 1344 544 1344 528
WIRE 864 640 864 528
WIRE 1040 640 864 640
WIRE 1344 640 1344 608
WIRE 1344 640 1040 640
WIRE 1456 640 1456 512
WIRE 1456 640 1344 640
WIRE 1600 640 1600 528
WIRE 1600 640 1456 640
WIRE 1824 640 1824 528
WIRE 1920 640 1920 464
WIRE 1920 640 1824 640
WIRE 1936 640 1920 640
WIRE 2000 704 2000 640
FLAG 1920 368 OUT
FLAG -976 144 IN
FLAG 1264 528 Vcapa
FLAG 1264 432 VESR
FLAG -432 128 Vanalyseur
FLAG -432 400 Vanalyseur2
FLAG -400 304 0
FLAG 816 240 0
FLAG 2000 704 0
FLAG 1040 640 ZEROEUT
FLAG 1024 320 VOUTEUT
FLAG 176 -32 VINEUT
SYMBOL res 320 304 R90
WINDOW 0 0 56 VBottom 2
WINDOW 3 32 56 VTop 2
SYMATTR InstName R1
SYMATTR Value 330K
SYMBOL cap 304 208 R90
WINDOW 0 0 32 VBottom 2
WINDOW 3 32 32 VTop 2
SYMATTR InstName C1
SYMATTR Value 1n
SYMBOL voltage -976 144 R0
WINDOW 123 0 0 Left 2
WINDOW 39 0 0 Left 2
SYMATTR InstName V1
SYMATTR Value 19
SYMBOL ind 736 336 R270
WINDOW 0 32 56 VTop 2
WINDOW 3 5 56 VBottom 2
SYMATTR InstName L1
SYMATTR Value 33µH
SYMATTR SpiceLine Rser=10m
SYMBOL cap 624 240 R0
SYMATTR InstName C3
SYMATTR Value .47µ
SYMATTR SpiceLine Rser=10mR Lser=1nH
SYMBOL res 848 320 R0
SYMATTR InstName R2
SYMATTR Value 1Meg
SYMBOL res 848 416 R0
SYMATTR InstName R3
SYMATTR Value 310K
SYMBOL res 1904 368 R0
SYMATTR InstName Rload
SYMATTR Value 4.7
SYMBOL PowerProducts\\LT3975 464 224 R0
SYMATTR InstName U1
SYMBOL diode 720 384 M270
WINDOW 0 32 32 VTop 2
WINDOW 3 0 32 VBottom 2
SYMATTR InstName D1
SYMATTR Value RF601T2D
SYMBOL cap 1328 544 R0
SYMATTR InstName C2
SYMATTR Value 22µ
SYMBOL res 1328 416 R0
SYMATTR InstName R4
SYMATTR Value 10mR
SYMBOL ind 1328 320 R0
SYMATTR InstName L2
SYMATTR Value 1nH
SYMATTR SpiceLine Rpar=1000 Cpar=100pF
SYMBOL ind -784 0 R270
WINDOW 0 32 56 VTop 2
WINDOW 3 5 56 VBottom 2
SYMATTR InstName L4
SYMATTR Value 50µH
SYMBOL cap -560 48 R0
SYMATTR InstName C5
SYMATTR Value 250nF
SYMBOL res -560 128 R0
SYMATTR InstName R7
SYMATTR Value 50
SYMBOL cap 0 80 R0
SYMATTR InstName C6
SYMATTR Value 330µF
SYMATTR SpiceLine V=50 Irms=2 Rser=10mR Lser=2nH Rpar=1200 Cpar=12pF
SYMATTR SpiceLine2 ic=19v
SYMBOL cap 1440 448 R0
SYMATTR InstName C4
SYMATTR Value 100nF
SYMATTR SpiceLine Rser=0.2mR
SYMBOL ind -368 0 R270
WINDOW 0 32 56 VTop 2
WINDOW 3 5 56 VBottom 2
SYMATTR InstName L3
SYMATTR Value 900nH
SYMATTR SpiceLine Rser=10mr Cpar=12pF
SYMBOL ind -784 528 M90
WINDOW 0 5 56 VBottom 2
WINDOW 3 32 56 VTop 2
SYMATTR InstName L5
SYMATTR Value 50µH
SYMBOL cap -560 480 M180
WINDOW 0 24 56 Left 2
WINDOW 3 24 8 Left 2
SYMATTR InstName C7
SYMATTR Value 250nF
SYMBOL res -560 400 M180
WINDOW 0 36 76 Left 2
WINDOW 3 36 40 Left 2
SYMATTR InstName R8
SYMATTR Value 50
SYMBOL ind -368 528 M90
WINDOW 0 5 56 VBottom 2
WINDOW 3 32 56 VTop 2
SYMATTR InstName L6
SYMATTR Value 900nH
SYMATTR SpiceLine Rser=10mr Cpar=12pF
SYMBOL cap -864 16 R0
SYMATTR InstName C8
SYMATTR Value 8µF
SYMBOL cap -864 432 R0
SYMATTR InstName C9
SYMATTR Value 8µF
SYMBOL res -864 304 R0
SYMATTR InstName R9
SYMATTR Value 5R
SYMBOL res -864 128 R0
SYMATTR InstName R10
SYMATTR Value 5R
SYMBOL res 160 512 R90
WINDOW 0 0 56 VBottom 2
WINDOW 3 32 56 VTop 2
SYMATTR InstName R11
SYMATTR Value 1mR
SYMBOL cap 816 160 R90
WINDOW 0 0 32 VBottom 2
WINDOW 3 32 32 VTop 2
SYMATTR InstName C10
SYMATTR Value 20pF
SYMBOL cap 2000 624 R90
WINDOW 0 0 32 VBottom 2
WINDOW 3 32 32 VTop 2
SYMATTR InstName C11
SYMATTR Value 100pF
SYMBOL WE-CMB -144 224 R0
SYMATTR InstName U2
SYMATTR SpiceModel XS_744821110_10m
SYMBOL WE-CMB 1728 480 R0
SYMATTR InstName U3
SYMATTR SpiceModel XS_744821110_10m
TEXT 328 640 Left 2 !.tran 0 1m 900us startup uic
TEXT 1080 728 Left 2 ;Couplage capacitif coque iPhone
TEXT 696 104 Left 2 ;Couplage VSW
