Version 4
SHEET 1 2004 680
WIRE -560 -64 -768 -64
WIRE -336 -64 -480 -64
WIRE -144 -64 -336 -64
WIRE -96 -64 -144 -64
WIRE 96 -64 -96 -64
WIRE 416 -64 96 -64
WIRE -96 -48 -96 -64
WIRE -336 0 -336 -64
WIRE 96 0 96 -64
WIRE 112 0 96 0
WIRE 416 0 416 -64
WIRE 416 0 400 0
WIRE -144 32 -160 32
WIRE -96 32 -144 32
WIRE -336 80 -336 64
WIRE -224 80 -336 80
WIRE -208 80 -224 80
WIRE -768 96 -768 -64
WIRE -336 96 -336 80
WIRE 112 96 96 96
WIRE 656 96 400 96
WIRE -768 112 -768 96
WIRE -144 112 -160 112
WIRE -96 112 -144 112
WIRE 656 176 656 96
WIRE 912 176 656 176
WIRE 1024 176 912 176
WIRE 1168 176 1024 176
WIRE -336 192 -336 176
WIRE -336 192 -768 192
WIRE 32 192 16 192
WIRE 112 192 96 192
WIRE 432 192 400 192
WIRE 912 192 912 176
WIRE -768 208 -768 192
WIRE 432 208 432 192
WIRE 1168 208 1168 176
WIRE -96 224 -96 176
WIRE 1168 224 1168 208
WIRE 16 288 0 288
WIRE 112 288 96 288
WIRE 432 288 432 272
WIRE 432 288 400 288
WIRE 544 288 432 288
WIRE 656 288 656 176
WIRE 656 288 624 288
WIRE 832 288 800 288
WIRE 912 288 912 272
WIRE 912 288 832 288
WIRE 656 304 656 288
WIRE 1168 320 1168 304
WIRE 432 336 432 288
WIRE 448 336 432 336
WIRE 528 336 512 336
WIRE 112 384 96 384
WIRE 656 384 400 384
WIRE 832 384 800 384
WIRE 912 384 912 368
WIRE 912 384 832 384
WIRE 656 400 656 384
WIRE 912 400 912 384
WIRE 656 496 656 480
WIRE 912 496 912 464
FLAG 96 384 0
FLAG 0 288 0
FLAG 16 192 0
FLAG -768 208 0
FLAG 912 496 0
FLAG 656 496 0
FLAG 1168 320 0
FLAG 1168 208 OUT
FLAG -768 96 IN
FLAG 528 336 0
FLAG 832 384 Vcapa
FLAG 832 288 VESR
FLAG -96 224 0
FLAG 1024 240 0
FLAG -224 80 Vlisn
FLAG -144 112 VinCap
FLAG -144 32 VinESR
FLAG -144 -64 Vin
SYMBOL res 112 272 R90
WINDOW 0 0 56 VBottom 2
WINDOW 3 32 56 VTop 2
SYMATTR InstName R1
SYMATTR Value 540k
SYMBOL cap 96 176 R90
WINDOW 0 0 32 VBottom 2
WINDOW 3 32 32 VTop 2
SYMATTR InstName C1
SYMATTR Value 1n
SYMBOL voltage -768 96 R0
WINDOW 123 0 0 Left 2
WINDOW 39 0 0 Left 2
WINDOW 0 40 29 Left 2
WINDOW 3 39 59 Left 2
SYMATTR InstName V1
SYMATTR Value 12.2
SYMBOL ind 528 304 R270
WINDOW 0 32 56 VTop 2
WINDOW 3 5 56 VBottom 2
SYMATTR InstName L1
SYMATTR Value 33µH
SYMATTR SpiceLine Rser=10m
SYMBOL cap 416 208 R0
SYMATTR InstName C3
SYMATTR Value .47µ
SYMBOL res 640 288 R0
SYMATTR InstName R2
SYMATTR Value 1Meg
SYMBOL res 640 384 R0
SYMATTR InstName R3
SYMATTR Value 310K
SYMBOL res 1152 208 R0
SYMATTR InstName Rload
SYMATTR Value 7
SYMBOL PowerProducts\\LT3975 256 192 R0
SYMATTR InstName U1
SYMBOL schottky 512 352 M270
WINDOW 0 32 32 VTop 2
WINDOW 3 0 32 VBottom 2
SYMATTR InstName D1
SYMATTR Value B560C
SYMATTR Description Diode
SYMATTR Type diode
SYMBOL cap 896 400 R0
SYMATTR InstName C2
SYMATTR Value 22µ
SYMBOL res 896 272 R0
SYMATTR InstName R4
SYMATTR Value 10mR
SYMBOL ind 896 176 R0
SYMATTR InstName L2
SYMATTR Value 1nH
SYMATTR SpiceLine Rpar=1000 Cpar=100pF
SYMBOL ind -576 -48 R270
WINDOW 0 32 56 VTop 2
WINDOW 3 5 56 VBottom 2
SYMATTR InstName L4
SYMATTR Value 50µH
SYMATTR SpiceLine Rser=1
SYMBOL cap -352 0 R0
SYMATTR InstName C5
SYMATTR Value 250nF
SYMBOL res -352 80 R0
SYMATTR InstName R7
SYMATTR Value 50
SYMBOL cap -112 112 R0
SYMATTR InstName C6
SYMATTR Value 22µF
SYMATTR SpiceLine2 Ic=12
SYMBOL cap 1008 176 R0
SYMATTR InstName C4
SYMATTR Value 100nF
SYMATTR SpiceLine Rser=0.2mR
SYMBOL res -112 16 R0
SYMATTR InstName R5
SYMATTR Value 0.3
SYMBOL ind -112 -64 R0
SYMATTR InstName L3
SYMATTR Value 1nH
SYMATTR SpiceLine Rpar=1000 Cpar=100pF
TEXT 120 456 Left 2 !.tran 0 1m 0.5m 5ns uic
