Version 4
SHEET 1 1992 744
WIRE -928 -64 -1104 -64
WIRE -848 -64 -928 -64
WIRE -624 -64 -768 -64
WIRE -336 -64 -624 -64
WIRE -176 -64 -256 -64
WIRE -32 -64 -176 -64
WIRE 96 -64 -32 -64
WIRE 416 -64 96 -64
WIRE -928 -32 -928 -64
WIRE -624 0 -624 -64
WIRE -176 0 -176 -64
WIRE 96 0 96 -64
WIRE 112 0 96 0
WIRE 416 0 416 -64
WIRE 416 0 400 0
WIRE -624 80 -624 64
WIRE -544 80 -624 80
WIRE -1104 96 -1104 -64
WIRE -928 96 -928 32
WIRE -624 96 -624 80
WIRE 112 96 96 96
WIRE 656 96 400 96
WIRE -1104 112 -1104 96
WIRE 544 144 512 144
WIRE 624 144 608 144
WIRE 32 192 -32 192
WIRE 112 192 96 192
WIRE 432 192 400 192
WIRE -928 208 -928 176
WIRE -624 208 -624 176
WIRE -624 208 -928 208
WIRE -544 208 -624 208
WIRE 432 208 432 192
WIRE -624 256 -624 208
WIRE -928 272 -928 208
WIRE -32 288 -32 192
WIRE 16 288 -32 288
WIRE 112 288 96 288
WIRE 432 288 432 272
WIRE 432 288 400 288
WIRE 512 288 512 144
WIRE 512 288 432 288
WIRE 544 288 512 288
WIRE 656 288 656 96
WIRE 656 288 624 288
WIRE 816 288 656 288
WIRE 1136 288 816 288
WIRE 1248 288 1136 288
WIRE 1360 288 1248 288
WIRE 656 304 656 288
WIRE 1136 304 1136 288
WIRE 432 336 432 288
WIRE 448 336 432 336
WIRE 560 336 512 336
WIRE 1360 336 1360 288
WIRE -624 352 -624 336
WIRE -544 352 -624 352
WIRE 1360 352 1360 336
WIRE -624 368 -624 352
WIRE -928 384 -928 352
WIRE -32 384 -32 288
WIRE 112 384 -32 384
WIRE 656 384 400 384
WIRE 656 400 656 384
WIRE 1056 400 1024 400
WIRE 1136 400 1136 384
WIRE 1136 400 1056 400
WIRE 1248 416 1248 288
WIRE -1104 496 -1104 192
WIRE -928 496 -928 448
WIRE -928 496 -1104 496
WIRE -848 496 -928 496
WIRE -624 496 -624 432
WIRE -624 496 -768 496
WIRE -336 496 -624 496
WIRE -176 496 -176 64
WIRE -176 496 -256 496
WIRE -144 496 -176 496
WIRE -32 496 -32 384
WIRE -32 496 -64 496
WIRE 560 496 560 336
WIRE 560 496 -32 496
WIRE 656 496 656 480
WIRE 656 496 560 496
WIRE 1056 496 1024 496
WIRE 1136 496 1136 480
WIRE 1136 496 1056 496
WIRE 1136 512 1136 496
WIRE 656 608 656 496
WIRE 832 608 656 608
WIRE 1136 608 1136 576
WIRE 1136 608 832 608
WIRE 1248 608 1248 480
WIRE 1248 608 1136 608
WIRE 1360 608 1360 432
WIRE 1360 608 1248 608
WIRE 1376 608 1360 608
WIRE 1440 672 1440 608
FLAG 1360 336 OUT
FLAG -1104 96 IN
FLAG 1056 496 Vcapa
FLAG 1056 400 VESR
FLAG -544 80 Vanalyseur
FLAG -544 352 Vanalyseur2
FLAG -544 208 0
FLAG 624 144 0
FLAG 1440 672 0
FLAG 832 608 ZEROEUT
FLAG 816 288 VOUTEUT
FLAG -32 -64 VINEUT
FLAG 512 144 SWN
SYMBOL res 112 272 R90
WINDOW 0 0 56 VBottom 2
WINDOW 3 32 56 VTop 2
SYMATTR InstName R1
SYMATTR Value 540k
SYMBOL cap 96 176 R90
WINDOW 0 0 32 VBottom 2
WINDOW 3 32 32 VTop 2
SYMATTR InstName C1
SYMATTR Value 1n
SYMBOL voltage -1104 96 R0
WINDOW 123 0 0 Left 2
WINDOW 39 0 0 Left 2
SYMATTR InstName V1
SYMATTR Value 19
SYMBOL ind 528 304 R270
WINDOW 0 32 56 VTop 2
WINDOW 3 5 56 VBottom 2
SYMATTR InstName L1
SYMATTR Value 33µH
SYMATTR SpiceLine Rser=10m
SYMBOL cap 416 208 R0
SYMATTR InstName C3
SYMATTR Value .47µ
SYMATTR SpiceLine Rser=10mR Lser=1nH
SYMBOL res 640 288 R0
SYMATTR InstName R2
SYMATTR Value 1Meg
SYMBOL res 640 384 R0
SYMATTR InstName R3
SYMATTR Value 310K
SYMBOL res 1344 336 R0
SYMATTR InstName Rload
SYMATTR Value 4.7
SYMBOL PowerProducts\\LT3975 256 192 R0
SYMATTR InstName U1
SYMBOL diode 512 352 M270
WINDOW 0 32 32 VTop 2
WINDOW 3 0 32 VBottom 2
SYMATTR InstName D1
SYMATTR Value RF601T2D
SYMBOL cap 1120 512 R0
SYMATTR InstName C2
SYMATTR Value 22µ
SYMBOL res 1120 384 R0
SYMATTR InstName R4
SYMATTR Value 10mR
SYMBOL ind 1120 288 R0
SYMATTR InstName L2
SYMATTR Value 1nH
SYMATTR SpiceLine Rpar=1000 Cpar=100pF
SYMBOL ind -864 -48 R270
WINDOW 0 32 56 VTop 2
WINDOW 3 5 56 VBottom 2
SYMATTR InstName L4
SYMATTR Value 50µH
SYMBOL cap -640 0 R0
SYMATTR InstName C5
SYMATTR Value 250nF
SYMBOL res -640 80 R0
SYMATTR InstName R7
SYMATTR Value 50
SYMBOL cap -192 0 R0
SYMATTR InstName C6
SYMATTR Value 22µF
SYMATTR SpiceLine Rser=0.4 Lser=2nH
SYMATTR SpiceLine2 Ic=12
SYMBOL cap 1232 416 R0
SYMATTR InstName C4
SYMATTR Value 100nF
SYMATTR SpiceLine Rser=0.2mR
SYMBOL ind -352 -48 R270
WINDOW 0 32 56 VTop 2
WINDOW 3 5 56 VBottom 2
SYMATTR InstName L3
SYMATTR Value 900nH
SYMATTR SpiceLine Cpar=12pF
SYMBOL ind -864 480 M90
WINDOW 0 5 56 VBottom 2
WINDOW 3 32 56 VTop 2
SYMATTR InstName L5
SYMATTR Value 50µH
SYMBOL cap -640 432 M180
WINDOW 0 24 56 Left 2
WINDOW 3 24 8 Left 2
SYMATTR InstName C7
SYMATTR Value 250nF
SYMBOL res -640 352 M180
WINDOW 0 36 76 Left 2
WINDOW 3 36 40 Left 2
SYMATTR InstName R8
SYMATTR Value 50
SYMBOL ind -352 480 M90
WINDOW 0 5 56 VBottom 2
WINDOW 3 32 56 VTop 2
SYMATTR InstName L6
SYMATTR Value 900nH
SYMATTR SpiceLine Cpar=12pF
SYMBOL cap -944 -32 R0
SYMATTR InstName C8
SYMATTR Value 8µF
SYMBOL cap -944 384 R0
SYMATTR InstName C9
SYMATTR Value 8µF
SYMBOL res -944 256 R0
SYMATTR InstName R9
SYMATTR Value 5R
SYMBOL res -944 80 R0
SYMATTR InstName R10
SYMATTR Value 5R
SYMBOL res -48 480 R90
WINDOW 0 0 56 VBottom 2
WINDOW 3 32 56 VTop 2
SYMATTR InstName R11
SYMATTR Value 1mR
SYMBOL cap 608 128 R90
WINDOW 0 0 32 VBottom 2
WINDOW 3 32 32 VTop 2
SYMATTR InstName C10
SYMATTR Value 20pF
SYMBOL cap 1440 592 R90
WINDOW 0 0 32 VBottom 2
WINDOW 3 32 32 VTop 2
SYMATTR InstName C11
SYMATTR Value 100pF
TEXT 120 608 Left 2 !.tran 0 1m 500us 5ns uic
TEXT 1080 728 Left 2 ;Couplage capacitif coque iPhone
TEXT 488 72 Left 2 ;Couplage VSW
