Version 4
SHEET 1 1616 772
WIRE -752 -48 -848 -48
WIRE -448 -48 -672 -48
WIRE -384 -48 -448 -48
WIRE -208 -48 -304 -48
WIRE -48 -48 -208 -48
WIRE 1024 -48 752 -48
WIRE 1328 -48 1024 -48
WIRE 1424 -48 1328 -48
WIRE 1328 32 1328 -48
WIRE -480 80 -512 80
WIRE -448 80 -448 -48
WIRE -448 80 -480 80
WIRE -208 80 -208 -48
WIRE -48 80 -48 -48
WIRE 384 80 -48 80
WIRE 432 80 384 80
WIRE 640 80 624 80
WIRE 688 80 640 80
WIRE 752 80 752 -48
WIRE 752 80 688 80
WIRE 384 96 384 80
WIRE 688 96 688 80
WIRE 1024 96 1024 -48
WIRE -448 112 -448 80
WIRE -848 128 -848 -48
WIRE 384 176 384 160
WIRE 384 176 -48 176
WIRE 432 176 384 176
WIRE 688 176 688 160
WIRE 688 176 624 176
WIRE 704 176 688 176
WIRE 752 176 704 176
WIRE 640 288 640 80
WIRE 704 288 704 176
WIRE -848 304 -848 208
WIRE -448 304 -448 192
WIRE -448 304 -848 304
WIRE -336 304 -448 304
WIRE -208 304 -208 160
WIRE -208 304 -256 304
WIRE -48 304 -48 176
WIRE -48 304 -208 304
WIRE 752 304 752 176
WIRE 1024 304 1024 176
WIRE 1024 304 752 304
WIRE 1328 304 1328 112
WIRE 1328 304 1024 304
WIRE 1424 304 1328 304
WIRE -816 368 -848 368
WIRE -720 368 -752 368
WIRE 1328 384 1328 304
WIRE -448 400 -448 304
WIRE 640 432 640 352
WIRE 640 432 400 432
WIRE 672 432 640 432
WIRE 704 432 704 352
WIRE 704 432 672 432
WIRE 912 432 704 432
WIRE -848 448 -848 368
WIRE -720 448 -848 448
WIRE -848 464 -848 448
WIRE 1328 496 1328 464
WIRE 1504 496 1328 496
WIRE 672 528 672 432
WIRE 1328 528 1328 496
WIRE -848 576 -848 544
WIRE -448 576 -448 480
WIRE 672 640 672 608
WIRE 1328 640 1328 608
FLAG -480 80 Vgen
FLAG -320 352 0
FLAG 672 640 0
FLAG 976 112 0
FLAG 624 544 0
FLAG -448 576 0
FLAG 1328 640 0
FLAG -272 352 DM
IOPIN -272 352 BiDir
FLAG -496 464 CM
IOPIN -496 464 BiDir
FLAG 624 592 CM
IOPIN 624 592 BiDir
FLAG 976 160 CM
IOPIN 976 160 BiDir
FLAG 1280 448 CM
IOPIN 1280 448 BiDir
FLAG 1280 400 0
FLAG -256 96 0
FLAG -256 144 CM
IOPIN -256 144 BiDir
FLAG 1504 496 VCM
IOPIN 1504 496 Out
FLAG 1424 304 VDML
IOPIN 1424 304 Out
FLAG 1424 -48 VDMH
IOPIN 1424 -48 Out
FLAG -720 448 CM
IOPIN -720 448 BiDir
FLAG -848 576 0
FLAG -720 368 DM
IOPIN -720 368 BiDir
FLAG -496 416 0
FLAG -848 304 VDMIL
IOPIN -848 304 In
FLAG -848 -48 VDMIH
IOPIN -848 -48 In
SYMBOL voltage -448 96 R0
WINDOW 123 19 99 Left 2
WINDOW 39 18 121 Left 2
SYMATTR Value2 AC 1
SYMATTR SpiceLine Rser=0
SYMATTR InstName V1
SYMATTR Value ""
SYMBOL res -288 -64 R90
WINDOW 0 0 56 VBottom 2
WINDOW 3 32 56 VTop 2
SYMATTR InstName R5
SYMATTR Value 50
SYMBOL sw -208 64 R0
SYMATTR InstName SCM2
SYMBOL res 1312 16 R0
SYMATTR InstName R1
SYMATTR Value 50
SYMBOL sw 672 512 R0
SYMATTR InstName SCM6
SYMBOL sw 1024 80 R0
SYMATTR InstName SCM4
SYMBOL Wurth_Elektronik\\EMC\\2_Common_Mode_Chokes_for_Mains_Power_Lines\\WE-CMB 528 128 R0
SYMATTR InstName U1
SYMATTR SpiceModel M_744823601_1m
SYMBOL sw -448 384 R0
SYMATTR InstName SCM1
SYMBOL sw -352 304 R270
SYMATTR InstName SDM1
SYMBOL sw 1328 368 R0
SYMATTR InstName SCM5
SYMBOL res 1312 512 R0
SYMATTR InstName R2
SYMATTR Value 50
SYMBOL voltage -848 448 R0
WINDOW 123 0 0 Left 0
WINDOW 39 0 0 Left 0
SYMATTR InstName V2
SYMATTR Value {Test_CM}
SYMBOL Digital\\inv -816 304 R0
SYMATTR InstName A1
SYMBOL res -864 112 R0
SYMATTR InstName R3
SYMATTR Value 50
SYMBOL res -656 -64 R90
WINDOW 0 0 56 VBottom 2
WINDOW 3 32 56 VTop 2
SYMATTR InstName R4
SYMATTR Value 50
SYMBOL cap 368 96 R0
SYMATTR InstName C2
SYMATTR Value 470nF
SYMATTR SpiceLine Rser=30mR Lser=2nH
SYMBOL cap 672 96 R0
SYMATTR InstName C3
SYMATTR Value 220nF
SYMATTR SpiceLine Rser=30mR Lser=2nH
SYMBOL cap 688 288 R0
SYMATTR InstName C7
SYMATTR Value 2.2n
SYMBOL cap 624 288 R0
WINDOW 3 36 56 Left 2
SYMATTR Value 2.2n
SYMATTR InstName C5
TEXT -144 528 Left 2 !.ac oct 1000 1000 100MEG
TEXT -152 560 Left 2 !.step param Test_CM list 0 1
TEXT 576 456 Left 2 ;Tie Chassis connection Here
TEXT -240 592 Left 2 !.model SW SW(Roff=100GR Ron=1mR vt=0.5)
TEXT 232 -232 Left 2 ;Place your filter Here
TEXT -296 480 Left 4 ;Design Your EMC filter LTspice plotter
TEXT -368 632 Left 2 ;Disclaimer : This is just as accurate as the data you feed into the model
LINE Normal -192 304 -192 304 2
RECTANGLE Normal 896 400 -176 -208 2
